35
4.000000	4.000000
C0	10.985   20.443   -0.143
C1	8.391   17.803   -1.231
C2	6.990   15.954    1.832
C3	7.550   18.481    4.644
C4	4.351   17.763    6.728
C5	1.533   18.172    4.136
C6	2.658   16.059    1.162
C7	3.878   13.629    3.884
C8	0.247   12.601    4.531
C9	-0.276   12.147    0.754
C10	3.043   10.268    0.055
C11	2.668    8.177    3.271
C12	-0.941    7.323    2.204
C13	0.681    5.722   -0.879
C14	2.747    3.141    1.132
C15	-0.244    2.632    3.538
C16	-2.073    1.311    0.424
C17	0.750    0.335   -2.086
C18	2.612   -1.669    0.629
C19	-0.821   -3.199    1.499
C20	-1.484   -3.859   -2.268
C21	1.466   -6.292   -2.631
C22	-0.142   -8.102    0.354
C23	-3.318   -8.652   -1.708
C24	-1.355   -9.868   -4.810
C25	0.140  -12.520   -2.442
C26	-3.194  -13.646   -0.849
C27	-4.686  -13.470   -4.410
C28	-1.959  -15.553   -6.139
C29	-2.232  -18.070   -3.251
C30	-6.096  -18.020   -3.509
C31	-5.564  -19.335   -7.077
C32	-3.740  -22.315   -5.417
C33	-6.566  -23.324   -2.972
C34	-10.032  -21.732   -3.274
