35
C0	10.8145142857143	20.9477142857143	0.266114285714286
C1	8.22051428571429	18.3077142857143	-0.821885714285714
C2	6.81951428571429	16.4587142857143	2.24111428571429
C3	7.37951428571429	18.9857142857143	5.05311428571429
C4	4.18051428571429	18.2677142857143	7.13711428571429
C5	1.36251428571429	18.6767142857143	4.54511428571429
C6	2.48751428571429	16.5637142857143	1.57111428571429
C7	3.70751428571429	14.1337142857143	4.29311428571429
C8	0.076514285714286	13.1057142857143	4.94011428571429
C9	-0.446485714285714	12.6517142857143	1.16311428571429
C10	2.87251428571429	10.7727142857143	0.464114285714286
C11	2.49751428571429	8.68171428571429	3.68011428571429
C12	-1.11148571428571	7.82771428571429	2.61311428571429
C13	0.510514285714286	6.22671428571429	-0.469885714285714
C14	2.57651428571429	3.64571428571429	1.54111428571429
C15	-0.414485714285714	3.13671428571429	3.94711428571429
C16	-2.24348571428571	1.81571428571429	0.833114285714286
C17	0.579514285714286	0.839714285714285	-1.67688571428571
C18	2.44151428571429	-1.16428571428571	1.03811428571429
C19	-0.991485714285714	-2.69428571428571	1.90811428571429
C20	-1.65448571428571	-3.35428571428571	-1.85888571428571
C21	1.29551428571429	-5.78728571428571	-2.22188571428571
C22	-0.312485714285714	-7.59728571428571	0.763114285714286
C23	-3.48848571428571	-8.14728571428571	-1.29888571428571
C24	-1.52548571428571	-9.36328571428571	-4.40088571428571
C25	-0.030485714285714	-12.0152857142857	-2.03288571428571
C26	-3.36448571428571	-13.1412857142857	-0.439885714285714
C27	-4.85648571428571	-12.9652857142857	-4.00088571428571
C28	-2.12948571428571	-15.0482857142857	-5.72988571428571
C29	-2.40248571428571	-17.5652857142857	-2.84188571428571
C30	-6.26648571428571	-17.5152857142857	-3.09988571428571
C31	-5.73448571428571	-18.8302857142857	-6.66788571428571
C32	-3.91048571428571	-21.8102857142857	-5.00788571428571
C33	-6.73648571428571	-22.8192857142857	-2.56288571428571
C34	-10.2024857142857	-21.2272857142857	-2.86488571428571
