35
C0	1.41249670788512	23.3586921809299	9.61822045360389
C1	3.64351471394225	22.7496296530682	6.54038558249668
C2	2.12559790195473	21.3250123485888	3.28597456240973
C3	2.86809073806112	18.6793577385684	0.594308707811775
C4	6.41219392846823	18.822342814334	2.08949359398956
C5	5.32481228263369	17.1036925274163	5.40238362349247
C6	2.20886738813334	15.4723563346242	3.85133796313173
C7	4.68880095145906	13.8448210878044	1.38450911988989
C8	5.78851825908374	11.5269795731846	4.2148869314931
C9	2.04050818215042	10.7647199430034	4.79037778233465
C10	0.998246679693403	10.4400868812247	1.07530344449211
C11	4.22906494758904	8.59680697646808	0.0324312027710741
C12	3.52762464612386	6.28965615735357	3.04180615470705
C13	0.547922501071223	5.10595922124413	0.93462920669963
C14	2.54029708796404	4.21668582981435	-2.26162521696546
C15	5.26632435009082	2.54788246162953	-0.0706325915838542
C16	2.54773223709853	0.167851713733435	1.15499767984604
C17	0.195035260098427	0.311849024967735	-1.91746756955416
C18	3.18663283952046	-1.13792281115266	-3.86386283927416
C19	3.48337115496212	-4.11858503554807	-1.44621065663684
C20	-0.363358119811529	-4.29372217027369	-1.44935241402592
C21	-0.484918682952051	-5.38082318272354	-5.12425954458302
C22	1.8541418152763	-8.23119474702684	-4.0696221988386
C23	0.00240783486429603	-9.20698280292844	-0.830659257440953
C24	-3.4086579911693	-9.00406274657107	-2.62808196264795
C25	-2.04214984799124	-11.7717349973353	-4.93147137978471
C26	-1.07674437510037	-14.2498200763012	-2.11323157197574
C27	-4.29574401076347	-13.1149615899148	-0.348528038382142
C28	-6.6914384592476	-13.5604221920882	-3.32658679559525
C29	-5.03494430839839	-16.9992190967234	-3.76090001997756
C30	-6.63189932465399	-17.919758120043	-0.368792624478122
C31	-10.1043936603973	-17.2120959594946	-1.87919103375924
C32	-8.95695252929747	-19.3500072142512	-4.88029438376999
C33	-8.41568556970398	-22.7950500052433	-3.21260848807935
C34	-7.38531552863753	-22.9780197203383	0.47233257818356
